/*--------------------------------*- C++ -*----------------------------------*\
  =========                   |
  \\      /  F ield         | OpenFOAM: The Open Source CFD Toolbox
   \\    /   O peration     | Website:  https://openfoam.org
    \\  /    A nd           | Version:  6
     \\/     M anipulation  |
\*---------------------------------------------------------------------------*/

FoamFile
{
	version 2.0;
	format  ascii;
	object  transportProperties;
	class   dictionary;
}

// * * * * * * * * * * * * * * * * * * * * * * * * * * * * * * * * * * * * * //

transportModel Newtonian;
rho            [1 -3 0 0 0 0 0] 1020;
nu             [0 2 -1 0 0 0 0] 1.27e-06;

// ************************************************************************* //
