/*--------------------------------*- C++ -*----------------------------------*\
  =========                   |
  \\      /  F ield         | OpenFOAM: The Open Source CFD Toolbox
   \\    /   O peration     | Website:  https://openfoam.org
    \\  /    A nd           | Version:  6
     \\/     M anipulation  |
\*---------------------------------------------------------------------------*/

FoamFile
{
	version 2.0;
	format  ascii;
	object  turbulenceProperties;
	class   dictionary;
}

// * * * * * * * * * * * * * * * * * * * * * * * * * * * * * * * * * * * * * //

simulationType RAS;
RAS
{
	RASModel    SpalartAllmaras;
	turbulence  on;
	printCoeffs on;
}

// ************************************************************************* //
