/*--------------------------------*- C++ -*----------------------------------*\
| =========                 |                                                 |
| \\      /  F ield         | OpenFOAM: The Open Source CFD Toolbox           |
|  \\    /   O peration     | Version:  4.1                                   |
|   \\  /    A nd           | Web:      www.OpenFOAM.org                      |
|    \\/     M anipulation  |                                                 |
\*---------------------------------------------------------------------------*/
FoamFile
{
    version     2.0;
    format      ascii;
    class       volScalarField;
    location    "0";
    object      p;
}
// * * * * * * * * * * * * * * * * * * * * * * * * * * * * * * * * * * * * * //

dimensions      [0 2 -2 0 0 0 0];

internalField   uniform 0;

boundaryField
{
    back
    {
        type            freestreamPressure;
        freestreamValue           uniform 0;
    }
    front
    {
        type            freestreamPressure;
        freestreamValue           uniform 0;
    }
    bottom
    {
        type            freestreamPressure;
        freestreamValue           uniform 0;
    }
    top
    {
        type            freestreamPressure;
        freestreamValue           uniform 0;
    }    
    left
    {
        type            freestreamPressure;
        freestreamValue           uniform 0;
    }
    right
    {
        type            freestreamPressure;
        freestreamValue           uniform 0;
    }    
    


}


// ************************************************************************* //
