/*--------------------------------*- C++ -*----------------------------------*\
| =========                 |                                                 |
| \\      /  F ield         | OpenFOAM: The Open Source CFD Toolbox           |
|  \\    /   O peration     | Version:  1.7.1                                 |
|   \\  /    A nd           | Web:      www.OpenFOAM.com                      |
|    \\/     M anipulation  |                                                 |
\*---------------------------------------------------------------------------*/
FoamFile
{
    version     2.0;
    format      ascii;
    class       dictionary;
    location    "system";
    object      controlDict;
}
// * * * * * * * * * * * * * * * * * * * * * * * * * * * * * * * * * * * * * //

application     interDyMFoam;

startFrom       latestTime;

startTime       0;

stopAt          endTime;

endTime        6;

deltaT          0.001;

writeControl    adjustableRunTime;

writeInterval   0.095;

purgeWrite      0;

writeFormat     ascii;

writePrecision  12;

writeCompression uncompressed;

timeFormat      general;

timePrecision   6;

runTimeModifiable yes;

adjustTimeStep  yes;

maxCo           0.125;
maxAlphaCo      0.125;
maxDeltaT       0.002;


functions
{
 
interfaceHeight1
{
    // Mandatory entries (unmodifiable)
    type            interfaceHeight;
    libs            (fieldFunctionObjects);

    // Mandatory entries (runtime modifiable)
    locations       ((0.6 0 0) (1.2 0 0) (1.8 0 0));

    // Optional entries (runtime modifiable)
    alpha           alpha.water;
    liquid          true;
    direction       (0 0 1);
    interpolationScheme    cellPoint;

    // Optional (inherited) entries
    writePrecision  8;
    writeToFile     true;
    useUserTime     true;
    region          region0;
    enabled         true;
    log             true;
    timeStart       0;
    timeEnd         1000;
    executeControl  timeStep;
    executeInterval 10;
    writeControl    timeStep;
    writeInterval   10;
}
    
    

}
// ************************************************************************* //
