/*--------------------------------*- C++ -*----------------------------------*\
| =========                 |                                                 |
| \\      /  F ield         | OpenFOAM: The Open Source CFD Toolbox           |
|  \\    /   O peration     | Version:  v1806                                 |
|   \\  /    A nd           | Web:      www.OpenFOAM.com                      |
|    \\/     M anipulation  |                                                 |
\*---------------------------------------------------------------------------*/
FoamFile
{
    version     2.0;
    format      ascii;
    class       dictionary;
    object      fvSolution;
}
// * * * * * * * * * * * * * * * * * * * * * * * * * * * * * * * * * * * * * //

solvers
{

    "cellDisplacement.*"
    {
        solver          PCG;
        preconditioner  DIC;

        tolerance       1e-06;
        relTol          0;
        maxIter         100;
    }

    "alpha.water.*"
    {
        nAlphaCorr      3;
        nAlphaSubCycles 2;
        cAlpha          1;
        icAlpha         0;

        MULESCorr       yes;
        nLimiterIter    10;
        alphaApplyPrevCorr  no;

        solver          smoothSolver;
        smoother        symGaussSeidel;
        tolerance       1e-8;
        relTol          0;
    }

    "pcorr.*"
    {
        solver          PCG;
        preconditioner  DIC;
        tolerance       1e-8;
        relTol          0;
    }

    p_rgh
    {
        solver          PBiCGStab;
        preconditioner  DIC;
        tolerance       1e-8;
        relTol          0;
    }

    p_rghFinal
    {
        $p_rgh;
        relTol          0;
    }

    "(U|k|omega|epsilon).*"
    {
        solver          smoothSolver;
        smoother        symGaussSeidel;
        tolerance       1e-08;
        relTol          0;
    }
}

PIMPLE
{
    momentumPredictor   no;
    nOuterCorrectors   3;
    nCorrectors         2;
    nNonOrthogonalCorrectors 2;

    ddtCorr                     yes;
    correctPhi                 no;
    massFluxInterpolation      no;

    moveMeshOuterCorrectors yes;
    turbOnFinalIterOnly yes;

    oversetAdjustPhi    yes;


}

relaxationFactors
{
    fields
    {
    }
    equations
    {
            ".*" 0.8;
    }
}

cache
{
        grad(U);
}

// ************************************************************************* //
