/*--------------------------------*- C++ -*----------------------------------*\
| =========                 |                                                 |
| \\      /  F ield         | OpenFOAM: The Open Source CFD Toolbox           |
|  \\    /   O peration     | Version:  1.7.1                                 |
|   \\  /    A nd           | Web:      www.OpenFOAM.com                      |
|    \\/     M anipulation  |                                                 |
\*---------------------------------------------------------------------------*/
FoamFile
{
    version     2.0;
    format      ascii;
    class       volScalarField;
    object      k;
}
// * * * * * * * * * * * * * * * * * * * * * * * * * * * * * * * * * * * * * //

dimensions      [0 2 -2 0 0 0 0];

internalField   uniform 0.00015;
boundaryField
{
   
    front
    {
        type            wedge;
    }
    back
    {
        type            wedge;
    }  
    bottom
    {
        type            fixedValue;
        value           $internalField;
    }
    tankWall
    {
        type            fixedValue;
        value           $internalField;
    }
    atmosphere
    {
        type            inletOutlet;
        inletValue      $internalField;
        value           $internalField;
    }
    floatingBody
    {
        type            kqRWallFunction;
        value           $internalField;
    }
 
    

}


// ************************************************************************* //
