/*--------------------------------*- C++ -*----------------------------------*\
  =========                   |
  \\      /  F ield         | OpenFOAM: The Open Source CFD Toolbox
   \\    /   O peration     | Website:  https://openfoam.org
    \\  /    A nd           | Version:  6
     \\/     M anipulation  |
\*---------------------------------------------------------------------------*/

FoamFile
{
	version 2.0;
	format  ascii;
	object  controlDict;
	class   dictionary;
}

// * * * * * * * * * * * * * * * * * * * * * * * * * * * * * * * * * * * * * //

application       simpleFoam;
startFrom         startTime;
startTime         0;
stopAt            endTime;
endTime           20;  //2000
deltaT            1;
writeControl      timeStep;
writeInterval     5;   //200
purgeWrite        0;
writeFormat       ascii;
writePrecision    6;
writeCompression  off;
timeFormat        general;
timePrecision     6;
runTimeModifiable true;
functions
{
	yPlus
	{
		type         yPlus;
		libs
		(
			fieldFunctionObjects
		);
		patches
		(
			airfoil
		);
		writeControl writeTime;
	}
	forces
	{
		type         forceCoeffs;
		libs
		(
			forces
		);
		writeControl writeTime;
		patches
		(
			airfoil
		);
		rho          rhoInf;
		rhoInf       1020;
		CofR
		(
			0
			0
			0
		);
		liftDir
		(
			-0.0
			1.0
			0
		);
		dragDir
		(
			1.0
			0.0
			0
		);
		pitchAxis
		(
			0
			0
			1
		);
		magUInf      1;
		lRef         1;
		Aref         4;
	}
	forces2
	{
		type          forces;
		libs
		(
			forces
		);
		patches
		(
			airfoil
		);
		rho           rhoInf;
		rhoInf        1020;
		log           on;
		writeControl  writeTime;
		writeInterval 1;
		CofR
		(
			2.929541
			0
			0.2
		);
	}
}

// ************************************************************************* //
